10

Cu  0.000000  0.000000  0.000000
Cu  0.000000  1.300000  -2.600000
Cu  0.000000  -1.300000  -2.600000
Cu  0.000000  2.600000  -5.200000
Cu  0.000000  0.000000  -5.200000
Cu  0.000000  -2.600000  -5.200000
Cu  0.000000  3.900000  -7.800000
Cu  0.000000  1.300000  -7.800000
Cu  0.000000  -1.300000  -7.800000
Cu  0.000000  -3.900000  -7.800000
